#ifndef __KEYBOARD_KEY_CODE_MAP_INC__
#define __KEYBOARD_KEY_CODE_MAP_INC__

static const usb_hid_key_code_info_t g_keyboard_key_code_map[] = {
  {"", USB_HID_KEY_CODE_SPACE},
  {"!", USB_HID_KEY_CODE_EXCLAIM},
  {"\"", USB_HID_KEY_CODE_APOSTROPHES},
  {"#", USB_HID_KEY_CODE_HASH},
  {"$", USB_HID_KEY_CODE_DOLLAR},
  {"%", USB_HID_KEY_CODE_PERCENT},
  {"&", USB_HID_KEY_CODE_AMPERSAND},
  {"'", USB_HID_KEY_CODE_APOSTROPHE},
  {"(", USB_HID_KEY_CODE_LEFTPAREN},
  {")", USB_HID_KEY_CODE_RIGHTPAREN},
  {"*", USB_HID_KEY_CODE_ASTERISK},
  {"+", USB_HID_KEY_CODE_PLUS},
  {",", USB_HID_KEY_CODE_COMMA},
  {"-", USB_HID_KEY_CODE_MINUS},
  {".", USB_HID_KEY_CODE_PERIOD},
  {"/", USB_HID_KEY_CODE_SLASH},
  {"0", USB_HID_KEY_CODE_0},
  {"0_Num", USB_HID_KEY_CODE_KP_0},
  {"1", USB_HID_KEY_CODE_1},
  {"1_Num", USB_HID_KEY_CODE_KP_1},
  {"2", USB_HID_KEY_CODE_2},
  {"2_Num", USB_HID_KEY_CODE_KP_2},
  {"3", USB_HID_KEY_CODE_3},
  {"3_Num", USB_HID_KEY_CODE_KP_3},
  {"4", USB_HID_KEY_CODE_4},
  {"4_Num", USB_HID_KEY_CODE_KP_4},
  {"5", USB_HID_KEY_CODE_5},
  {"5_Num", USB_HID_KEY_CODE_KP_5},
  {"6", USB_HID_KEY_CODE_6},
  {"6_Num", USB_HID_KEY_CODE_KP_6},
  {"7", USB_HID_KEY_CODE_7},
  {"7_Num", USB_HID_KEY_CODE_KP_7},
  {"8", USB_HID_KEY_CODE_8},
  {"8_Num", USB_HID_KEY_CODE_KP_8},
  {"9", USB_HID_KEY_CODE_9},
  {"9_Num", USB_HID_KEY_CODE_KP_9},
  {":", USB_HID_KEY_CODE_COLON},
  {";", USB_HID_KEY_CODE_SEMICOLON},
  {"<", USB_HID_KEY_CODE_LESS},
  {"=", USB_HID_KEY_CODE_EQUALS},
  {">", USB_HID_KEY_CODE_GREATER},
  {"?", USB_HID_KEY_CODE_QUESTION},
  {"@", USB_HID_KEY_CODE_AT},
  {"A", USB_HID_KEY_CODE_A},
  {"Alt", USB_HID_KEY_CODE_ALT},
  {"B", USB_HID_KEY_CODE_B},
  {"Backspace", USB_HID_KEY_CODE_BACKSPACE},
  {"Break", USB_HID_KEY_CODE_PAUSE},
  {"C", USB_HID_KEY_CODE_C},
  {"Caps Lock", USB_HID_KEY_CODE_CAPSLOCK},
  {"Ctrl", USB_HID_KEY_CODE_CTRL},
  {"D", USB_HID_KEY_CODE_D},
  {"Del", USB_HID_KEY_CODE_DELETE},
  {"Delete", USB_HID_KEY_CODE_DELETE},
  {"E", USB_HID_KEY_CODE_E},
  {"End", USB_HID_KEY_CODE_END},
  {"Enter", USB_HID_KEY_CODE_RETURN},
  {"Esc", USB_HID_KEY_CODE_ESCAPE},
  {"F", USB_HID_KEY_CODE_F},
  {"F1", USB_HID_KEY_CODE_F1},
  {"F10", USB_HID_KEY_CODE_F10},
  {"F11", USB_HID_KEY_CODE_F11},
  {"F12", USB_HID_KEY_CODE_F12},
  {"F2", USB_HID_KEY_CODE_F2},
  {"F3", USB_HID_KEY_CODE_F3},
  {"F4", USB_HID_KEY_CODE_F4},
  {"F5", USB_HID_KEY_CODE_F5},
  {"F6", USB_HID_KEY_CODE_F6},
  {"F7", USB_HID_KEY_CODE_F7},
  {"F8", USB_HID_KEY_CODE_F8},
  {"F9", USB_HID_KEY_CODE_F9},
  {"FN", USB_HID_KEY_CODE_FN},
  {"G", USB_HID_KEY_CODE_G},
  {"H", USB_HID_KEY_CODE_H},
  {"Home", USB_HID_KEY_CODE_HOME},
  {"I", USB_HID_KEY_CODE_I},
  {"Ins", USB_HID_KEY_CODE_INSERT},
  {"Insert", USB_HID_KEY_CODE_INSERT},
  {"J", USB_HID_KEY_CODE_J},
  {"K", USB_HID_KEY_CODE_K},
  {"L", USB_HID_KEY_CODE_L},
  {"M", USB_HID_KEY_CODE_M},
  {"Menu", USB_HID_KEY_CODE_APPLICATION},
  {"N", USB_HID_KEY_CODE_N},
  {"Num Lock", USB_HID_KEY_CODE_NUMLOCKCLEAR},
  {"O", USB_HID_KEY_CODE_O},
  {"P", USB_HID_KEY_CODE_P},
  {"Pause", USB_HID_KEY_CODE_PAUSE},
  {"PgDn", USB_HID_KEY_CODE_PAGEDOWN},
  {"PgUp", USB_HID_KEY_CODE_PAGEUP},
  {"PrtSc", USB_HID_KEY_CODE_PRINTSCREEN},
  {"Q", USB_HID_KEY_CODE_Q},
  {"R", USB_HID_KEY_CODE_R},
  {"S", USB_HID_KEY_CODE_S},
  {"Scroll Lock", USB_HID_KEY_CODE_SCROLLLOCK},
  {"Shift", USB_HID_KEY_CODE_SHIFT},
  {"T", USB_HID_KEY_CODE_T},
  {"Tab", USB_HID_KEY_CODE_TAB},
  {"U", USB_HID_KEY_CODE_U},
  {"V", USB_HID_KEY_CODE_V},
  {"W", USB_HID_KEY_CODE_W},
  {"Win", USB_HID_KEY_CODE_GUI},
  {"X", USB_HID_KEY_CODE_X},
  {"Y", USB_HID_KEY_CODE_Y},
  {"Z", USB_HID_KEY_CODE_Z},
  {"[", USB_HID_KEY_CODE_LEFTBRACKET},
  {"\\", USB_HID_KEY_CODE_BACKSLASH},
  {"]", USB_HID_KEY_CODE_RIGHTBRACKET},
  {"^", USB_HID_KEY_CODE_CARET},
  {"_", USB_HID_KEY_CODE_UNDERSCORE},
  {"`", USB_HID_KEY_CODE_NONUSHASH},
  {"a", USB_HID_KEY_CODE_a},
  {"b", USB_HID_KEY_CODE_b},
  {"c", USB_HID_KEY_CODE_c},
  {"d", USB_HID_KEY_CODE_d},
  {"e", USB_HID_KEY_CODE_e},
  {"f", USB_HID_KEY_CODE_f},
  {"g", USB_HID_KEY_CODE_g},
  {"h", USB_HID_KEY_CODE_h},
  {"i", USB_HID_KEY_CODE_i},
  {"j", USB_HID_KEY_CODE_j},
  {"k", USB_HID_KEY_CODE_k},
  {"l", USB_HID_KEY_CODE_l},
  {"m", USB_HID_KEY_CODE_m},
  {"n", USB_HID_KEY_CODE_n},
  {"o", USB_HID_KEY_CODE_o},
  {"p", USB_HID_KEY_CODE_p},
  {"q", USB_HID_KEY_CODE_q},
  {"r", USB_HID_KEY_CODE_r},
  {"s", USB_HID_KEY_CODE_s},
  {"t", USB_HID_KEY_CODE_t},
  {"u", USB_HID_KEY_CODE_u},
  {"v", USB_HID_KEY_CODE_v},
  {"w", USB_HID_KEY_CODE_w},
  {"x", USB_HID_KEY_CODE_x},
  {"y", USB_HID_KEY_CODE_y},
  {"z", USB_HID_KEY_CODE_z},
  {"{", USB_HID_KEY_CODE_LEFTBRACKET},
  {"|", USB_HID_KEY_CODE_BACKSLASH},
  {"}", USB_HID_KEY_CODE_RIGHTBRACKET},
  {"~", USB_HID_KEY_CODE_NONUSHASH},
  {"←", USB_HID_KEY_CODE_LEFT},
  {"↑", USB_HID_KEY_CODE_UP},
  {"→", USB_HID_KEY_CODE_RIGHT},
  {"↓", USB_HID_KEY_CODE_DOWN},
};
static const int16_t g_keyboard_key_code_jmp_table[] = {
  0,
  -1,
  -1,
  -1,
  -1,
  -1,
  -1,
  -1,
  -1,
  -1,
  -1,
  -1,
  -1,
  -1,
  -1,
  -1,
  -1,
  -1,
  -1,
  -1,
  -1,
  -1,
  -1,
  -1,
  -1,
  -1,
  -1,
  -1,
  -1,
  -1,
  -1,
  -1,
  -1,
  1,
  2,
  3,
  4,
  5,
  6,
  7,
  8,
  9,
  10,
  11,
  12,
  13,
  14,
  15,
  16,
  18,
  20,
  22,
  24,
  26,
  28,
  30,
  32,
  34,
  36,
  37,
  38,
  39,
  40,
  41,
  42,
  43,
  45,
  48,
  51,
  54,
  58,
  72,
  73,
  75,
  78,
  79,
  80,
  81,
  83,
  85,
  86,
  91,
  92,
  93,
  96,
  98,
  99,
  100,
  102,
  103,
  104,
  105,
  106,
  107,
  108,
  109,
  110,
  111,
  112,
  113,
  114,
  115,
  116,
  117,
  118,
  119,
  120,
  121,
  122,
  123,
  124,
  125,
  126,
  127,
  128,
  129,
  130,
  131,
  132,
  133,
  134,
  135,
  136,
  137,
  138,
  139,
  140,
  -1,
  -1,
  -1,
  -1,
  -1,
  -1,
  -1,
  -1,
  -1,
  -1,
  -1,
  -1,
  -1,
  -1,
  -1,
  -1,
  -1,
  -1,
  -1,
  -1,
  -1,
  -1,
  -1,
  -1,
  -1,
  -1,
  -1,
  -1,
  -1,
  -1,
  -1,
  -1,
  -1,
  -1,
  -1,
  -1,
  -1,
  -1,
  -1,
  -1,
  -1,
  -1,
  -1,
  -1,
  -1,
  -1,
  -1,
  -1,
  -1,
  -1,
  -1,
  -1,
  -1,
  -1,
  -1,
  -1,
  -1,
  -1,
  -1,
  -1,
  -1,
  -1,
  -1,
  -1,
  -1,
  -1,
  -1,
  -1,
  -1,
  -1,
  -1,
  -1,
  -1,
  -1,
  -1,
  -1,
  -1,
  -1,
  -1,
  -1,
  -1,
  -1,
  -1,
  -1,
  -1,
  -1,
  -1,
  -1,
  -1,
  -1,
  -1,
  -1,
  -1,
  -1,
  -1,
  -1,
  -1,
  -1,
  -1,
  141,
};

#endif
